// Generated for: spectre
// Design Netlist Generated on: Oct 31 17:28:15 2024
// Design library name: logic_gates
// Design cell name: nand_gate
// Design view name: schematic
simulator lang=spectre
include "ade_e.scs"
global 0 vdd!
