// Generated for: spectre
// Design Netlist Generated on: Oct 23 19:06:07 2024
// Design library name: fanout-tests
// Design cell name: fanout-question-3
// Design view name: schematic
simulator lang=spectre
include "ade_e.scs"
global 0 vdd!
