// Generated for: spectre
// Design Netlist Generated on: Oct 24 15:49:12 2024
// Design library name: fanout-tests
// Design cell name: fanout-question-4
// Design view name: schematic
simulator lang=spectre
include "ade_e.scs"
global 0 vdd!
