// Generated for: spectre
// Design Netlist Generated on: Nov  4 11:54:13 2024
// Design library name: logic_gates
// Design cell name: q4_expr
// Design view name: schematic
simulator lang=spectre
include "ade_e.scs"
global 0 vdd!
