// Generated for: spectre
// Design Netlist Generated on: Nov  4 09:20:19 2024
// Design library name: logic_gates
// Design cell name: q2_expr
// Design view name: schematic
simulator lang=spectre
include "ade_e.scs"
global 0 vdd!
