// Generated for: spectre
// Design Netlist Generated on: Nov  4 09:04:53 2024
// Design library name: logic_gates
// Design cell name: q3_expr
// Design view name: schematic
simulator lang=spectre
include "ade_e.scs"
global 0 vdd!
