// Generated for: spectre
// Design Netlist Generated on: Oct 31 15:57:22 2024
// Design library name: logic_gates
// Design cell name: not_gate
// Design view name: schematic
simulator lang=spectre
include "ade_e.scs"
global 0 vdd!
